Circuit: * C:\Users\rruark\Documents\GitHub\10BASE-T1L\Draft1.asc

Direct Newton iteration for .op point succeeded.

Date: Sat Oct 21 23:34:19 2023
Total elapsed time: 0.087 seconds.

tnom = 27
temp = 27
method = modified trap
totiter = 2112
traniter = 2102
tranpoints = 1052
accept = 1051
rejected = 1
matrix size = 2
fillins = 0
solver = Normal
Matrix Compiler1: 54 bytes object code size  0.1/0.0/[0.0]
Matrix Compiler2:      10 opcodes  0.0/[0.0]/0.0

