Circuit: * C:\users\rruark\My Documents\Documents\pcb\10BASE-T1L\hybrid.asc

Direct Newton iteration for .op point succeeded.

Date: Sun Nov 05 21:09:25 2023
Total elapsed time: 0.161 seconds.

tnom = 27
temp = 27
method = modified trap
totiter = 40024
traniter = 40000
tranpoints = 15612
accept = 14194
rejected = 1418
matrix size = 15
fillins = 2
solver = Normal
Matrix Compiler1: 758 bytes object code size  0.2/0.1/[0.1]
Matrix Compiler2: off  [0.1]/0.1/0.1

