Circuit: * C:\Users\rruark\Documents\GitHub\10BASE-T1L\MDI Return Loss.asc

WARNING: Node N007 is floating.
WARNING: Node N008 is floating.
WARNING: Node N015 is floating.
WARNING: Node NC_01 is floating.

WARNING: Less than two connections to node NC_01.  This node is used by L3.
WARNING: Less than two connections to node NC_02.  This node is used by L4.
.step podl=0.00047
.step podl=0.001
.step podl=0.002
.step podl=0.01

Date: Sat Oct 21 18:10:22 2023
Total elapsed time: 0.083 seconds.

tnom = 27
temp = 27
method = trap
totiter = 0
traniter = 0
tranpoints = 0
accept = 0
rejected = 0
matrix size = 25
fillins = 22
solver = Normal

