Circuit: * C:\users\rruark\My Documents\Documents\pcb\10BASE-T1L\MDI Return Loss.asc

WARNING: Node N006 is floating.
WARNING: Node N007 is floating.


Date: Mon Jan 01 16:05:06 2024
Total elapsed time: 0.013 seconds.

tnom = 27
temp = 27
method = trap
totiter = 0
traniter = 0
tranpoints = 0
accept = 0
rejected = 0
matrix size = 18
fillins = 17
solver = Normal

